<?xml version="1.0" encoding="ISO-8859-1"?>
<febio_spec version="3.0">
<Module type="solid"/>
<Control>
	<adaptor_re_solve>0</adaptor_re_solve>
	<analysis>STATIC</analysis>	
	<time_steps>20</time_steps>
	<step_size>0.1</step_size>
	<solver>
		<max_refs>15</max_refs>
		<max_ups>10</max_ups>
		<diverge_reform>1</diverge_reform>
		<reform_each_time_step>1</reform_each_time_step>
		<dtol>0.001</dtol>
		<etol>0.01</etol>
		<rtol>0</rtol>
		<lstol>0.9</lstol>
		<min_residual>1e-20</min_residual>
		<qnmethod>BFGS</qnmethod>
		<rhoi>0</rhoi>
	</solver>
	<time_stepper>
		<dtmin>0.01</dtmin>
		<dtmax>0.1</dtmax>
		<max_retries>5</max_retries>
		<opt_iter>10</opt_iter>
	</time_stepper>
</Control>
<Material>
	<material id="1" name="elastic" type="prestrain elastic">
		<density>1e-05</density>
		<prestrain type="prestrain gradient">
			<F0 type="map">F0_map</F0>
		</prestrain>		
		<elastic type="isotropic elastic">
			<E>1</E>
			<v>0.33</v>
		</elastic>
	</material>
</Material>
<Mesh>
	<Nodes name="Object01">
		<node id="1">-4,-0.75,0</node>
		<node id="2">-4,-0.75,0.333333333</node>
		<node id="3">-4,-0.75,0.666666667</node>
		<node id="4">-4,-0.75,1</node>
		<node id="5">-4,-0.45,0</node>
		<node id="6">-4,-0.45,0.333333333</node>
		<node id="7">-4,-0.45,0.666666667</node>
		<node id="8">-4,-0.45,1</node>
		<node id="9">-4,-0.15,0</node>
		<node id="10">-4,-0.15,0.333333333</node>
		<node id="11">-4,-0.15,0.666666667</node>
		<node id="12">-4,-0.15,1</node>
		<node id="13">-4,0.15,0</node>
		<node id="14">-4,0.15,0.333333333</node>
		<node id="15">-4,0.15,0.666666667</node>
		<node id="16">-4,0.15,1</node>
		<node id="17">-4,0.45,0</node>
		<node id="18">-4,0.45,0.333333333</node>
		<node id="19">-4,0.45,0.666666667</node>
		<node id="20">-4,0.45,1</node>
<!-- ... 484 like lines cut -->
	</Nodes>
	<Elements type="tet4" name="Part1">
		<elem id="1">1,25,30,26</elem>
		<elem id="2">1,30,25,29</elem>
		<elem id="3">1,26,30,2</elem>
		<elem id="4">1,30,6,2</elem>
		<elem id="5">1,30,29,5</elem>
		<elem id="6">1,30,5,6</elem>
		<elem id="7">2,26,31,27</elem>
		<elem id="8">2,31,26,30</elem>
		<elem id="9">2,27,31,3</elem>
		<elem id="10">2,31,7,3</elem>
		<elem id="11">2,31,30,6</elem>
		<elem id="12">2,31,6,7</elem>
		<elem id="13">3,27,32,28</elem>
		<elem id="14">3,32,27,31</elem>
		<elem id="15">3,28,32,4</elem>
		<elem id="16">3,32,8,4</elem>
		<elem id="17">3,32,31,7</elem>
		<elem id="18">3,32,7,8</elem>
		<elem id="19">5,29,34,30</elem>
		<elem id="20">5,34,29,33</elem>
<!-- ... 1780 like lines cut -->
	</Elements>
	<Surface name="FixedDisplacement1">
		<tri3 id="1">1,2,6</tri3>
		<tri3 id="2">6,5,1</tri3>
		<tri3 id="3">2,3,7</tri3>
		<tri3 id="4">7,6,2</tri3>
		<tri3 id="5">3,4,8</tri3>
		<tri3 id="6">8,7,3</tri3>
		<tri3 id="7">5,6,10</tri3>
		<tri3 id="8">10,9,5</tri3>
		<tri3 id="9">6,7,11</tri3>
		<tri3 id="10">11,10,6</tri3>
		<tri3 id="11">7,8,12</tri3>
		<tri3 id="12">12,11,7</tri3>
		<tri3 id="13">9,10,14</tri3>
		<tri3 id="14">14,13,9</tri3>
		<tri3 id="15">10,11,15</tri3>
		<tri3 id="16">15,14,10</tri3>
		<tri3 id="17">11,12,16</tri3>
		<tri3 id="18">16,15,11</tri3>
		<tri3 id="19">13,14,18</tri3>
		<tri3 id="20">18,17,13</tri3>
<!-- ... 10 like lines cut -->
	</Surface>
	<Surface name="SurfaceTraction1">
		<tri3 id="1">481,485,486</tri3>
		<tri3 id="2">486,482,481</tri3>
		<tri3 id="3">482,486,487</tri3>
		<tri3 id="4">487,483,482</tri3>
		<tri3 id="5">483,487,488</tri3>
		<tri3 id="6">488,484,483</tri3>
		<tri3 id="7">485,489,490</tri3>
		<tri3 id="8">490,486,485</tri3>
		<tri3 id="9">486,490,491</tri3>
		<tri3 id="10">491,487,486</tri3>
		<tri3 id="11">487,491,492</tri3>
		<tri3 id="12">492,488,487</tri3>
		<tri3 id="13">489,493,494</tri3>
		<tri3 id="14">494,490,489</tri3>
		<tri3 id="15">490,494,495</tri3>
		<tri3 id="16">495,491,490</tri3>
		<tri3 id="17">491,495,496</tri3>
		<tri3 id="18">496,492,491</tri3>
		<tri3 id="19">493,497,498</tri3>
		<tri3 id="20">498,494,493</tri3>
<!-- ... 10 like lines cut -->
	</Surface>
</Mesh>
<MeshDomains>
	<SolidDomain name="Part1" mat="elastic"/>
</MeshDomains>
<MeshData>
	<ElementData elem_set="Part1" name="F0_map" generator="const" datatype="mat3" format="MAT_POINTS">
		<value>1,0,0,0,1,0,0,0,1</value>
	</ElementData>
	<ElementData elem_set="Part1" name="D0_map" generator="const" datatype="vec3"> <!-- must be ElementData with format MULT (default if not specified) -->
		<value>0,0,0</value>
	</ElementData>
</MeshData>
<MeshAdaptor>
	<mesh_adaptor type="mmg_reset" elem_set="Part1">
		<relative_size>0</relative_size>
		<gradient_map>F0_map</gradient_map>
		<displacement_map>D0_map</displacement_map>
		<criterion type="fixed dt">
			<dt>0.5</dt>
			<value>0.25</value>		
		</criterion>
	</mesh_adaptor>
</MeshAdaptor>
<Boundary>
	<bc name="FixedDisplacement1" type="fix" node_set="@surface:FixedDisplacement1">
		<dofs>x,y,z</dofs>
	</bc>
</Boundary>
<Loads>
	<surface_load name="SurfaceTraction1" type="traction" surface="SurfaceTraction1">
		<scale lc="1">0.01</scale>
		<traction>0,1,0</traction>
	</surface_load>
</Loads>
<LoadData>
	<load_controller id="1" type="loadcurve">
		<interpolate>SMOOTH</interpolate>
		<points>
			<point>0,0</point>
			<point>1,1</point>
			<point>2,0</point>
		</points>
	</load_controller>
</LoadData>
<Output>
	<plotfile type="febio">
		<var type="displacement"/>
		<var type="quality"/>
		<var type="relative volume"/>
		<var type="stress"/>
	</plotfile>
</Output>
</febio_spec>
